<?xml version="1.0" encoding="UTF-8"?>

<!-- generated on 2025-03-14 12:29:28 by Eclipse SUMO netedit Version 1.21.0
<neteditConfiguration xmlns:xsi="http://www.w3.org/2001/XMLSchema-instance" xsi:noNamespaceSchemaLocation="http://sumo.dlr.de/xsd/neteditConfiguration.xsd">

    <input>
        <sumo-net-file value="C:\Users\skyle\OneDrive\Desktop\SkylerTrafficControlSystem\full_model_network.net.xml"/>
    </input>

    <output>
        <output-file value="C:\Users\skyle\OneDrive\Desktop\SkylerTrafficControlSystem\full_model_network.net.xml"/>
        <output.street-names value="true"/>
    </output>

    <processing>
        <geometry.min-radius.fix.railways value="false"/>
        <geometry.max-grade.fix value="false"/>
        <offset.disable-normalization value="true"/>
        <lefthand value="0"/>
    </processing>

    <junctions>
        <no-turnarounds value="true"/>
        <junctions.corner-detail value="5"/>
        <junctions.limit-turn-speed value="5.50"/>
        <rectangular-lane-cut value="0"/>
    </junctions>

    <pedestrian>
        <walkingareas value="0"/>
    </pedestrian>

</neteditConfiguration>
-->

<net version="1.20" junctionCornerDetail="5" limitTurnSpeed="5.50" xmlns:xsi="http://www.w3.org/2001/XMLSchema-instance" xsi:noNamespaceSchemaLocation="http://sumo.dlr.de/xsd/net_file.xsd">

    <location netOffset="-586482.99,-4387339.04" convBoundary="29.16,0.00,3024.85,2865.39" origBoundary="-79.991918,39.622854,-79.916513,39.720732" projParameter="+proj=utm +zone=17 +ellps=WGS84 +datum=WGS84 +units=m +no_defs"/>

    <type id="highway.footway" priority="1" numLanes="1" speed="2.78" allow="pedestrian" oneway="1" width="2.00"/>
    <type id="highway.path" priority="1" numLanes="1" speed="5.56" allow="pedestrian bicycle" oneway="0" width="2.00"/>
    <type id="highway.primary" priority="12" numLanes="2" speed="27.78" disallow="tram rail_urban rail rail_electric rail_fast ship container cable_car subway aircraft wheelchair scooter drone" oneway="0"/>
    <type id="highway.primary_link" priority="7" numLanes="1" speed="22.22" disallow="tram rail_urban rail rail_electric rail_fast ship container cable_car subway aircraft wheelchair scooter drone" oneway="0"/>
    <type id="highway.residential" priority="3" numLanes="1" speed="13.89" disallow="tram rail_urban rail rail_electric rail_fast ship container cable_car subway aircraft wheelchair scooter drone" oneway="0"/>
    <type id="highway.service" priority="1" numLanes="1" speed="5.56" allow="pedestrian delivery bicycle" oneway="0"/>
    <type id="highway.steps" priority="1" numLanes="1" speed="1.39" allow="pedestrian" oneway="1" width="2.00"/>
    <type id="highway.tertiary" priority="10" numLanes="1" speed="22.22" disallow="tram rail_urban rail rail_electric rail_fast ship container cable_car subway aircraft wheelchair scooter drone" oneway="0"/>
    <type id="highway.unclassified" priority="4" numLanes="1" speed="13.89" disallow="tram rail_urban rail rail_electric rail_fast ship container cable_car subway aircraft wheelchair scooter drone" oneway="0"/>

    <edge id=":10043904038_0" function="internal">
        <lane id=":10043904038_0_0" index="0" allow="pedestrian bicycle" speed="2.89" length="2.92" width="2.00" shape="1973.32,1779.57 1972.62,1780.14 1972.07,1780.23 1971.67,1779.85 1971.41,1778.98"/>
    </edge>
    <edge id=":1119958560_0" function="internal">
        <lane id=":1119958560_0_0" index="0" disallow="tram rail_urban rail rail_electric rail_fast ship container cable_car subway aircraft wheelchair scooter drone" speed="3.65" length="4.67" shape="2419.65,2238.81 2420.35,2240.07 2420.34,2240.96 2419.62,2241.49 2418.19,2241.65"/>
    </edge>
    <edge id=":1119958571_0" function="internal">
        <lane id=":1119958571_0_0" index="0" disallow="tram rail_urban rail rail_electric rail_fast ship container cable_car subway aircraft wheelchair scooter drone" speed="12.54" length="17.90" shape="2251.33,2162.85 2248.91,2163.82 2246.02,2166.22 2242.69,2170.04 2238.90,2175.28"/>
    </edge>
    <edge id=":1119958571_1" function="internal">
        <lane id=":1119958571_1_0" index="0" disallow="tram rail_urban rail rail_electric rail_fast ship container cable_car subway aircraft wheelchair scooter drone" speed="5.53" length="9.22" shape="2251.33,2162.85 2247.17,2163.27 2244.29,2163.40 2242.70,2163.24 2242.39,2162.79"/>
    </edge>
    <edge id=":1119958571_2" function="internal">
        <lane id=":1119958571_2_0" index="0" disallow="tram rail_urban rail rail_electric rail_fast ship container cable_car subway aircraft wheelchair scooter drone" speed="11.18" length="12.60" shape="2245.18,2164.35 2238.90,2175.28"/>
    </edge>
    <edge id=":1119958571_3" function="internal">
        <lane id=":1119958571_3_0" index="0" disallow="tram rail_urban rail rail_electric rail_fast ship container cable_car subway aircraft wheelchair scooter drone" speed="3.65" length="1.44" shape="2245.18,2164.35 2243.90,2165.01"/>
    </edge>
    <edge id=":1119958571_6" function="internal">
        <lane id=":1119958571_6_0" index="0" disallow="tram rail_urban rail rail_electric rail_fast ship container cable_car subway aircraft wheelchair scooter drone" speed="3.65" length="3.23" shape="2243.90,2165.01 2243.00,2164.96 2242.50,2164.22 2242.39,2162.79"/>
    </edge>
    <edge id=":1119958571_4" function="internal">
        <lane id=":1119958571_4_0" index="0" disallow="tram rail_urban rail rail_electric rail_fast ship container cable_car subway aircraft wheelchair scooter drone" speed="11.18" length="12.34" shape="2236.25,2173.49 2242.39,2162.79"/>
    </edge>
    <edge id=":1119958571_5" function="internal">
        <lane id=":1119958571_5_0" index="0" disallow="tram rail_urban rail rail_electric rail_fast ship container cable_car subway aircraft wheelchair scooter drone" speed="3.65" length="1.44" shape="2236.25,2173.49 2237.58,2172.94"/>
    </edge>
    <edge id=":1119958571_7" function="internal">
        <lane id=":1119958571_7_0" index="0" disallow="tram rail_urban rail rail_electric rail_fast ship container cable_car subway aircraft wheelchair scooter drone" speed="3.65" length="3.23" shape="2237.58,2172.94 2238.47,2173.06 2238.91,2173.84 2238.90,2175.28"/>
    </edge>
    <edge id=":1119958605_0" function="internal">
        <lane id=":1119958605_0_0" index="0" allow="pedestrian delivery bicycle" speed="7.50" length="7.31" shape="2195.93,2102.06 2193.77,2100.81 2191.92,2100.08 2190.38,2099.85 2189.15,2100.13"/>
    </edge>
    <edge id=":1119958605_1" function="internal">
        <lane id=":1119958605_1_0" index="0" allow="pedestrian delivery bicycle" speed="6.67" length="12.58" shape="2195.93,2102.06 2193.13,2099.64 2192.20,2097.22 2193.13,2094.80 2195.92,2092.37"/>
    </edge>
    <edge id=":1119958605_2" function="internal">
        <lane id=":1119958605_2_0" index="0" allow="pedestrian delivery bicycle" speed="3.65" length="4.67" shape="2195.93,2102.06 2195.36,2100.73 2195.46,2099.84 2196.23,2099.39 2197.67,2099.37"/>
    </edge>
    <edge id=":1119958605_3" function="internal">
        <lane id=":1119958605_3_0" index="0" allow="pedestrian delivery bicycle" speed="4.72" length="5.61" shape="2197.67,2095.05 2196.42,2096.13 2196.01,2097.21 2196.42,2098.29 2197.67,2099.37"/>
    </edge>
    <edge id=":1119958605_4" function="internal">
        <lane id=":1119958605_4_0" index="0" disallow="tram rail_urban rail rail_electric rail_fast ship container cable_car subway aircraft wheelchair scooter drone" speed="13.89" length="9.93" shape="2197.67,2095.05 2195.21,2096.68 2193.51,2097.78 2191.77,2098.79 2189.15,2100.13"/>
    </edge>
    <edge id=":1119958605_5" function="internal">
        <lane id=":1119958605_5_0" index="0" disallow="tram rail_urban rail rail_electric rail_fast ship container cable_car subway aircraft wheelchair scooter drone" speed="13.89" length="9.56" shape="2187.72,2097.27 2190.24,2095.97 2191.92,2095.00 2193.55,2093.94 2195.92,2092.37"/>
    </edge>
    <edge id=":1119958605_6" function="internal">
        <lane id=":1119958605_6_0" index="0" allow="pedestrian delivery bicycle" speed="8.93" length="2.60" shape="2187.72,2097.27 2189.77,2096.69 2190.24,2096.72"/>
    </edge>
    <edge id=":1119958605_7" function="internal">
        <lane id=":1119958605_7_0" index="0" allow="pedestrian delivery bicycle" speed="8.93" length="8.00" shape="2190.24,2096.72 2192.11,2096.85 2194.74,2097.74 2197.67,2099.37"/>
    </edge>
    <edge id=":1119958619_0" function="internal">
        <lane id=":1119958619_0_0" index="0" disallow="tram rail_urban rail rail_electric rail_fast ship container cable_car subway aircraft wheelchair scooter drone" speed="10.49" length="8.01" shape="2289.83,2096.21 2288.49,2098.05 2288.06,2099.60 2288.08,2101.33 2288.07,2103.73"/>
    </edge>
    <edge id=":1119958619_1" function="internal">
        <lane id=":1119958619_1_0" index="0" disallow="tram rail_urban rail rail_electric rail_fast ship container cable_car subway aircraft wheelchair scooter drone" speed="11.18" length="8.07" shape="2289.83,2096.21 2284.37,2102.17"/>
    </edge>
    <edge id=":1119958619_2" function="internal">
        <lane id=":1119958619_2_0" index="0" disallow="tram rail_urban rail rail_electric rail_fast ship container cable_car subway aircraft wheelchair scooter drone" speed="3.65" length="4.67" shape="2289.83,2096.21 2288.43,2096.55 2287.57,2096.30 2287.25,2095.46 2287.48,2094.04"/>
    </edge>
    <edge id=":1119958619_3" function="internal">
        <lane id=":1119958619_3_0" index="0" disallow="tram rail_urban rail rail_electric rail_fast ship container cable_car subway aircraft wheelchair scooter drone" speed="11.18" length="8.09" shape="2282.01,2100.00 2287.48,2094.04"/>
    </edge>
    <edge id=":1119958619_4" function="internal">
        <lane id=":1119958619_4_0" index="0" disallow="tram rail_urban rail rail_electric rail_fast ship container cable_car subway aircraft wheelchair scooter drone" speed="5.98" length="12.54" shape="2282.01,2100.00 2284.91,2097.49 2286.89,2097.27 2287.94,2099.35 2288.07,2103.73"/>
    </edge>
    <edge id=":1119958619_5" function="internal">
        <lane id=":1119958619_5_0" index="0" disallow="tram rail_urban rail rail_electric rail_fast ship container cable_car subway aircraft wheelchair scooter drone" speed="3.65" length="4.67" shape="2282.01,2100.00 2283.42,2099.66 2284.28,2099.91 2284.59,2100.74 2284.37,2102.17"/>
    </edge>
    <edge id=":1119958643_0" function="internal">
        <lane id=":1119958643_0_0" index="0" disallow="tram rail_urban rail rail_electric rail_fast ship container cable_car subway aircraft wheelchair scooter drone" speed="13.89" length="9.23" shape="2332.44,2205.10 2324.31,2200.73"/>
    </edge>
    <edge id=":1119958643_1" function="internal">
        <lane id=":1119958643_1_0" index="0" allow="pedestrian delivery bicycle" speed="6.80" length="3.22" shape="2332.44,2205.10 2330.13,2203.32 2329.98,2203.06"/>
    </edge>
    <edge id=":1119958643_7" function="internal">
        <lane id=":1119958643_7_0" index="0" allow="pedestrian delivery bicycle" speed="6.80" length="7.32" shape="2329.98,2203.06 2329.00,2201.26 2329.07,2198.91 2330.33,2196.27"/>
    </edge>
    <edge id=":1119958643_2" function="internal">
        <lane id=":1119958643_2_0" index="0" allow="pedestrian delivery bicycle" speed="4.96" length="5.09" shape="2332.99,2198.05 2332.38,2199.32 2332.35,2200.46 2332.89,2201.45 2334.01,2202.31"/>
    </edge>
    <edge id=":1119958643_3" function="internal">
        <lane id=":1119958643_3_0" index="0" allow="pedestrian delivery bicycle" speed="7.14" length="10.10" shape="2332.99,2198.05 2331.12,2200.21 2329.05,2201.37 2326.78,2201.55 2324.31,2200.73"/>
    </edge>
    <edge id=":1119958643_4" function="internal">
        <lane id=":1119958643_4_0" index="0" allow="pedestrian delivery bicycle" speed="3.65" length="4.67" shape="2332.99,2198.05 2331.66,2198.60 2330.77,2198.49 2330.33,2197.72 2330.33,2196.27"/>
    </edge>
    <edge id=":1119958643_5" function="internal">
        <lane id=":1119958643_5_0" index="0" allow="pedestrian delivery bicycle" speed="5.40" length="5.37" shape="2325.76,2197.88 2327.03,2198.28 2328.21,2198.14 2329.31,2197.47 2330.33,2196.27"/>
    </edge>
    <edge id=":1119958643_6" function="internal">
        <lane id=":1119958643_6_0" index="0" disallow="tram rail_urban rail rail_electric rail_fast ship container cable_car subway aircraft wheelchair scooter drone" speed="13.89" length="9.36" shape="2325.76,2197.88 2334.01,2202.31"/>
    </edge>
    <edge id=":1119958651_0" function="internal">
        <lane id=":1119958651_0_0" index="0" disallow="tram rail_urban rail rail_electric rail_fast ship container cable_car subway aircraft wheelchair scooter drone" speed="13.89" length="10.60" shape="2287.30,2177.69 2278.21,2172.25"/>
    </edge>
    <edge id=":1119958651_1" function="internal">
        <lane id=":1119958651_1_0" index="0" disallow="tram rail_urban rail rail_electric rail_fast ship container cable_car subway aircraft wheelchair scooter drone" speed="13.89" length="10.62" shape="2287.30,2177.69 2284.87,2175.91 2283.49,2174.19 2282.39,2172.17 2280.80,2169.50"/>
    </edge>
    <edge id=":1119958652_0" function="internal">
        <lane id=":1119958652_0_0" index="0" disallow="tram rail_urban rail rail_electric rail_fast ship container cable_car subway aircraft wheelchair scooter drone" speed="13.89" length="16.61" shape="2288.20,2149.76 2288.59,2153.76 2289.42,2158.00 2290.73,2162.09 2292.54,2165.63"/>
    </edge>
    <edge id=":1119958652_1" function="internal">
        <lane id=":1119958652_1_0" index="0" disallow="tram rail_urban rail rail_electric rail_fast ship container cable_car subway aircraft wheelchair scooter drone" speed="13.89" length="16.52" shape="2284.99,2150.96 2286.59,2154.61 2288.45,2158.46 2290.46,2162.23 2292.54,2165.63"/>
    </edge>
    <edge id=":1122151658_0" function="internal">
        <lane id=":1122151658_0_0" index="0" disallow="tram rail_urban rail rail_electric rail_fast ship container cable_car subway aircraft wheelchair scooter drone" speed="15.65" length="7.72" shape="1214.85,1971.71 1207.48,1969.42"/>
    </edge>
    <edge id=":1122151658_1" function="internal">
        <lane id=":1122151658_1_0" index="0" disallow="tram rail_urban rail rail_electric rail_fast ship container cable_car subway aircraft wheelchair scooter drone" speed="18.93" length="7.90" shape="1215.79,1968.65 1208.15,1966.62"/>
    </edge>
    <edge id=":1122151658_2" function="internal">
        <lane id=":1122151658_2_0" index="0" disallow="tram rail_urban rail rail_electric rail_fast ship container cable_car subway aircraft wheelchair scooter drone" speed="15.65" length="7.92" shape="1215.79,1968.65 1208.23,1966.30"/>
    </edge>
    <edge id=":1122151658_3" function="internal">
        <lane id=":1122151658_3_0" index="0" disallow="tram rail_urban rail rail_electric rail_fast ship container cable_car subway aircraft wheelchair scooter drone" speed="18.93" length="8.17" shape="1209.09,1962.71 1211.31,1963.69 1212.84,1964.32 1214.41,1964.87 1216.73,1965.59"/>
    </edge>
    <edge id=":1122151658_4" function="internal">
        <lane id=":1122151658_4_0" index="0" disallow="tram rail_urban rail rail_electric rail_fast ship container cable_car subway aircraft wheelchair scooter drone" speed="15.65" length="8.22" shape="1209.72,1960.06 1217.66,1962.53"/>
        <lane id=":1122151658_4_1" index="1" disallow="tram rail_urban rail rail_electric rail_fast ship container cable_car subway aircraft wheelchair scooter drone" speed="15.65" length="8.22" shape="1208.98,1963.18 1216.73,1965.59"/>
    </edge>
    <edge id=":1122151701_0" function="internal">
        <lane id=":1122151701_0_0" index="0" disallow="tram rail_urban rail rail_electric rail_fast ship container cable_car subway aircraft wheelchair scooter drone" speed="21.17" length="3.44" shape="1098.17,1972.26 1097.36,1972.87 1096.83,1973.33 1096.36,1973.85 1095.73,1974.65"/>
    </edge>
    <edge id=":1122151701_1" function="internal">
        <lane id=":1122151701_1_0" index="0" disallow="tram rail_urban rail rail_electric rail_fast ship container cable_car subway aircraft wheelchair scooter drone" speed="20.12" length="3.68" shape="1095.46,1969.91 1093.19,1972.71"/>
        <lane id=":1122151701_1_1" index="1" disallow="tram rail_urban rail rail_electric rail_fast ship container cable_car subway aircraft wheelchair scooter drone" speed="20.12" length="3.68" shape="1093.02,1967.84 1090.65,1970.76"/>
    </edge>
    <edge id=":1122151776_0" function="internal">
        <lane id=":1122151776_0_0" index="0" disallow="tram rail_urban rail rail_electric rail_fast ship container cable_car subway aircraft wheelchair scooter drone" speed="21.17" length="3.32" shape="1180.83,1871.62 1178.66,1874.13"/>
    </edge>
    <edge id=":1122151776_1" function="internal">
        <lane id=":1122151776_1_0" index="0" disallow="tram rail_urban rail rail_electric rail_fast ship container cable_car subway aircraft wheelchair scooter drone" speed="20.12" length="3.16" shape="1178.38,1869.56 1176.33,1872.04"/>
        <lane id=":1122151776_1_1" index="1" disallow="tram rail_urban rail rail_electric rail_fast ship container cable_car subway aircraft wheelchair scooter drone" speed="20.12" length="3.16" shape="1175.93,1867.50 1173.94,1869.90"/>
    </edge>
    <edge id=":1122213372_0" function="internal">
        <lane id=":1122213372_0_0" index="0" disallow="tram rail_urban rail rail_electric rail_fast ship container cable_car subway aircraft wheelchair scooter drone" speed="8.94" length="1.49" shape="1483.77,1773.34 1483.43,1773.62 1483.18,1773.80 1482.91,1773.94 1482.51,1774.11"/>
    </edge>
    <edge id=":1122213372_1" function="internal">
        <lane id=":1122213372_1_0" index="0" disallow="tram rail_urban rail rail_electric rail_fast ship container cable_car subway aircraft wheelchair scooter drone" speed="8.94" length="0.50" shape="1481.29,1771.15 1481.43,1771.09 1481.52,1771.05 1481.60,1770.99 1481.71,1770.89"/>
    </edge>
    <edge id=":1122213432_0" function="internal">
        <lane id=":1122213432_0_0" index="0" allow="pedestrian bicycle" speed="5.56" length="6.27" width="1.50" shape="1288.65,1808.20 1287.00,1808.94 1286.07,1809.80 1285.22,1810.83 1283.83,1812.07"/>
    </edge>
    <edge id=":1122213432_1" function="internal">
        <lane id=":1122213432_1_0" index="0" allow="pedestrian bicycle" speed="2.64" length="1.28" width="1.50" shape="1288.65,1808.20 1287.88,1808.41 1287.41,1808.28"/>
    </edge>
    <edge id=":1122213432_4" function="internal">
        <lane id=":1122213432_4_0" index="0" allow="pedestrian bicycle" speed="2.64" length="1.28" width="1.50" shape="1287.41,1808.28 1287.22,1807.83 1287.33,1807.05"/>
    </edge>
    <edge id=":1122213432_2" function="internal">
        <lane id=":1122213432_2_0" index="0" allow="pedestrian bicycle" speed="5.56" length="5.92" width="1.50" shape="1282.94,1810.87 1284.22,1809.67 1284.97,1808.64 1285.80,1807.77 1287.33,1807.05"/>
    </edge>
    <edge id=":1122213432_3" function="internal">
        <lane id=":1122213432_3_0" index="0" allow="pedestrian bicycle" speed="2.50" length="1.70" width="1.50" shape="1282.94,1810.87 1283.61,1810.84 1283.99,1811.03 1284.06,1811.44 1283.99,1811.62"/>
    </edge>
    <edge id=":1122213432_5" function="internal">
        <lane id=":1122213432_5_0" index="0" allow="pedestrian bicycle" speed="2.50" length="0.49" width="1.50" shape="1283.99,1811.62 1283.83,1812.07"/>
    </edge>
    <edge id=":1122213489_0" function="internal">
        <lane id=":1122213489_0_0" index="0" allow="pedestrian delivery bicycle" speed="8.37" length="10.86" shape="1538.14,1963.12 1535.48,1961.74 1533.24,1961.51 1530.83,1961.85 1527.66,1962.16"/>
    </edge>
    <edge id=":1122213489_1" function="internal">
        <lane id=":1122213489_1_0" index="0" disallow="tram rail_urban rail rail_electric rail_fast ship container cable_car subway aircraft wheelchair scooter drone" speed="11.18" length="12.11" shape="1538.14,1963.12 1535.51,1961.14 1533.43,1959.33 1531.44,1957.42 1529.05,1955.13"/>
    </edge>
    <edge id=":1122213489_2" function="internal">
        <lane id=":1122213489_2_0" index="0" disallow="tram rail_urban rail rail_electric rail_fast ship container cable_car subway aircraft wheelchair scooter drone" speed="11.18" length="11.84" shape="1531.28,1952.76 1533.00,1955.46 1534.93,1957.23 1537.21,1958.71 1539.98,1960.51"/>
    </edge>
    <edge id=":1122213489_3" function="internal">
        <lane id=":1122213489_3_0" index="0" allow="pedestrian delivery bicycle" speed="6.74" length="1.93" shape="1531.28,1952.76 1531.95,1954.57"/>
    </edge>
    <edge id=":1122213489_7" function="internal">
        <lane id=":1122213489_7_0" index="0" allow="pedestrian delivery bicycle" speed="6.74" length="11.11" shape="1531.95,1954.57 1532.76,1956.80 1532.65,1959.71 1530.95,1961.50 1527.66,1962.16"/>
    </edge>
    <edge id=":1122213489_4" function="internal">
        <lane id=":1122213489_4_0" index="0" allow="pedestrian delivery bicycle" speed="4.68" length="6.69" shape="1527.59,1958.96 1529.71,1958.67 1530.66,1957.94 1530.44,1956.76 1529.05,1955.13"/>
    </edge>
    <edge id=":1122213489_5" function="internal">
        <lane id=":1122213489_5_0" index="0" allow="pedestrian delivery bicycle" speed="8.37" length="12.78" shape="1527.59,1958.96 1531.06,1958.74 1534.13,1958.61 1537.02,1959.03 1539.98,1960.51"/>
    </edge>
    <edge id=":1122213489_6" function="internal">
        <lane id=":1122213489_6_0" index="0" allow="pedestrian delivery bicycle" speed="3.65" length="4.67" shape="1527.59,1958.96 1528.80,1959.73 1529.22,1960.52 1528.84,1961.33 1527.66,1962.16"/>
    </edge>
    <edge id=":1122213530_0" function="internal">
        <lane id=":1122213530_0_0" index="0" disallow="tram rail_urban rail rail_electric rail_fast ship container cable_car subway aircraft wheelchair scooter drone" speed="8.94" length="0.21" shape="1549.29,1545.35 1549.23,1545.36 1549.19,1545.37 1549.15,1545.39 1549.09,1545.41"/>
    </edge>
    <edge id=":1122213530_1" function="internal">
        <lane id=":1122213530_1_0" index="0" disallow="tram rail_urban rail rail_electric rail_fast ship container cable_car subway aircraft wheelchair scooter drone" speed="8.94" length="0.64" shape="1547.99,1542.40 1548.17,1542.33 1548.29,1542.30 1548.42,1542.26 1548.60,1542.22"/>
    </edge>
    <edge id=":1123684733_0" function="internal">
        <lane id=":1123684733_0_0" index="0" allow="pedestrian delivery bicycle" speed="3.65" length="4.67" shape="1030.53,1855.62 1030.69,1854.18 1031.22,1853.46 1032.11,1853.45 1033.37,1854.15"/>
    </edge>
    <edge id=":1123684733_1" function="internal">
        <lane id=":1123684733_1_0" index="0" allow="pedestrian delivery bicycle" speed="4.92" length="5.15" shape="1034.96,1850.06 1033.70,1850.75 1033.01,1851.65 1032.90,1852.79 1033.37,1854.15"/>
    </edge>
    <edge id=":1123684749_0" function="internal">
        <lane id=":1123684749_0_0" index="0" allow="pedestrian delivery bicycle" speed="5.56" length="12.97" shape="1164.38,1844.58 1162.24,1847.26 1160.52,1849.78 1158.90,1852.37 1157.06,1855.28"/>
    </edge>
    <edge id=":1123684749_1" function="internal">
        <lane id=":1123684749_1_0" index="0" allow="pedestrian delivery bicycle" speed="5.56" length="13.94" shape="1164.38,1844.58 1161.72,1846.85 1158.69,1848.29 1155.40,1849.32 1151.92,1850.38"/>
    </edge>
    <edge id=":1123684749_2" function="internal">
        <lane id=":1123684749_2_0" index="0" allow="pedestrian delivery bicycle" speed="3.65" length="4.67" shape="1164.38,1844.58 1162.99,1844.97 1162.13,1844.75 1161.78,1843.92 1161.96,1842.49"/>
    </edge>
    <edge id=":1123684749_3" function="internal">
        <lane id=":1123684749_3_0" index="0" allow="pedestrian delivery bicycle" speed="5.56" length="12.33" shape="1150.87,1847.36 1154.13,1846.44 1156.96,1845.73 1159.51,1844.62 1161.96,1842.49"/>
    </edge>
    <edge id=":1123684749_4" function="internal">
        <lane id=":1123684749_4_0" index="0" allow="pedestrian delivery bicycle" speed="5.56" length="18.32" shape="1150.87,1847.36 1156.75,1845.95 1159.74,1846.80 1159.85,1849.91 1157.06,1855.28"/>
    </edge>
    <edge id=":1123684749_5" function="internal">
        <lane id=":1123684749_5_0" index="0" allow="pedestrian delivery bicycle" speed="3.65" length="4.67" shape="1150.87,1847.36 1152.26,1847.72 1152.90,1848.35 1152.79,1849.23 1151.92,1850.38"/>
    </edge>
    <edge id=":1123684749_6" function="internal">
        <lane id=":1123684749_6_0" index="0" allow="pedestrian delivery bicycle" speed="4.74" length="7.29" shape="1154.38,1853.53 1155.49,1851.40 1155.45,1850.16 1154.26,1849.82 1151.92,1850.38"/>
    </edge>
    <edge id=":1123684749_7" function="internal">
        <lane id=":1123684749_7_0" index="0" allow="pedestrian delivery bicycle" speed="5.56" length="13.41" shape="1154.38,1853.53 1156.26,1850.57 1157.97,1847.86 1159.78,1845.22 1161.96,1842.49"/>
    </edge>
    <edge id=":1123684749_8" function="internal">
        <lane id=":1123684749_8_0" index="0" allow="pedestrian delivery bicycle" speed="3.65" length="4.67" shape="1154.38,1853.53 1155.71,1852.96 1156.59,1853.06 1157.05,1853.83 1157.06,1855.28"/>
    </edge>
    <edge id=":1123684753_0" function="internal">
        <lane id=":1123684753_0_0" index="0" allow="pedestrian delivery bicycle" speed="5.56" length="14.91" shape="1183.64,1811.60 1183.04,1815.25 1181.84,1818.75 1180.24,1822.13 1178.47,1825.45"/>
    </edge>
    <edge id=":1123684753_1" function="internal">
        <lane id=":1123684753_1_0" index="0" allow="pedestrian delivery bicycle" speed="5.56" length="3.22" shape="1183.64,1811.60 1182.86,1814.22 1182.54,1814.59"/>
    </edge>
    <edge id=":1123684753_2" function="internal">
        <lane id=":1123684753_2_0" index="0" allow="pedestrian delivery bicycle" speed="3.65" length="1.44" shape="1183.64,1811.60 1182.77,1812.75"/>
    </edge>
    <edge id=":1123684753_9" function="internal">
        <lane id=":1123684753_9_0" index="0" allow="pedestrian delivery bicycle" speed="5.56" length="11.61" shape="1182.54,1814.59 1180.82,1816.64 1177.53,1818.86 1172.99,1820.88"/>
    </edge>
    <edge id=":1123684753_10" function="internal">
        <lane id=":1123684753_10_0" index="0" allow="pedestrian delivery bicycle" speed="3.65" length="3.23" shape="1182.77,1812.75 1181.95,1813.10 1181.17,1812.66 1180.44,1811.41"/>
    </edge>
    <edge id=":1123684753_3" function="internal">
        <lane id=":1123684753_3_0" index="0" allow="pedestrian delivery bicycle" speed="5.56" length="11.17" shape="1171.88,1817.88 1175.55,1816.31 1178.21,1814.71 1179.84,1813.08 1180.44,1811.41"/>
    </edge>
    <edge id=":1123684753_4" function="internal">
        <lane id=":1123684753_4_0" index="0" allow="pedestrian delivery bicycle" speed="5.56" length="17.19" shape="1171.88,1817.88 1177.29,1816.50 1180.19,1817.30 1180.59,1820.29 1178.47,1825.45"/>
    </edge>
    <edge id=":1123684753_5" function="internal">
        <lane id=":1123684753_5_0" index="0" allow="pedestrian delivery bicycle" speed="3.65" length="4.67" shape="1171.88,1817.88 1173.28,1818.21 1173.94,1818.82 1173.84,1819.71 1172.99,1820.88"/>
    </edge>
    <edge id=":1123684753_6" function="internal">
        <lane id=":1123684753_6_0" index="0" allow="pedestrian delivery bicycle" speed="4.70" length="6.94" shape="1175.65,1823.94 1176.51,1821.85 1176.35,1820.65 1175.18,1820.32 1172.99,1820.88"/>
    </edge>
    <edge id=":1123684753_7" function="internal">
        <lane id=":1123684753_7_0" index="0" allow="pedestrian delivery bicycle" speed="5.56" length="13.54" shape="1175.65,1823.94 1177.36,1820.83 1178.83,1817.90 1179.91,1814.86 1180.44,1811.41"/>
    </edge>
    <edge id=":1123684753_8" function="internal">
        <lane id=":1123684753_8_0" index="0" allow="pedestrian delivery bicycle" speed="3.65" length="1.44" shape="1175.65,1823.94 1176.93,1823.26"/>
    </edge>
    <edge id=":1123684753_11" function="internal">
        <lane id=":1123684753_11_0" index="0" allow="pedestrian delivery bicycle" speed="3.65" length="3.23" shape="1176.93,1823.26 1177.82,1823.29 1178.34,1824.02 1178.47,1825.45"/>
    </edge>
    <edge id=":1123684764_0" function="internal">
        <lane id=":1123684764_0_0" index="0" allow="pedestrian delivery bicycle" speed="3.65" length="4.67" shape="1029.50,2014.26 1028.13,2014.71 1027.25,2014.53 1026.87,2013.72 1026.98,2012.28"/>
    </edge>
    <edge id=":1123684787_0" function="internal">
        <lane id=":1123684787_0_0" index="0" allow="pedestrian delivery bicycle" speed="5.56" length="9.44" shape="1048.39,1890.24 1044.08,1881.84"/>
    </edge>
    <edge id=":1123684787_1" function="internal">
        <lane id=":1123684787_1_0" index="0" allow="pedestrian delivery bicycle" speed="5.56" length="10.87" shape="1048.39,1890.24 1047.41,1887.36 1047.65,1884.98 1049.13,1883.09 1051.83,1881.69"/>
    </edge>
    <edge id=":1123684787_2" function="internal">
        <lane id=":1123684787_2_0" index="0" allow="pedestrian delivery bicycle" speed="3.65" length="4.67" shape="1048.39,1890.24 1048.56,1888.81 1049.09,1888.09 1049.98,1888.08 1051.24,1888.78"/>
    </edge>
    <edge id=":1123684787_3" function="internal">
        <lane id=":1123684787_3_0" index="0" allow="pedestrian delivery bicycle" speed="4.90" length="5.17" shape="1052.88,1884.72 1051.59,1885.38 1050.89,1886.28 1050.77,1887.41 1051.24,1888.78"/>
    </edge>
    <edge id=":1123684787_4" function="internal">
        <lane id=":1123684787_4_0" index="0" allow="pedestrian delivery bicycle" speed="5.56" length="10.24" shape="1052.88,1884.72 1050.00,1885.34 1047.58,1885.07 1045.60,1883.90 1044.08,1881.84"/>
    </edge>
    <edge id=":1123684787_5" function="internal">