<?xml version="1.0" encoding="UTF-8"?>

<!-- generated on 2025-02-05 15:49:27 by Eclipse SUMO netedit Version 1.21.0
<neteditConfiguration xmlns:xsi="http://www.w3.org/2001/XMLSchema-instance" xsi:noNamespaceSchemaLocation="http://sumo.dlr.de/xsd/neteditConfiguration.xsd">

    <input>
        <sumocfg-file value="C:\Users\skyle\OneDrive\Desktop\Traffic Management system t\scripts\simulation_files\simulation.sumocfg"/>
        <additional-files value="C:\Users\skyle\OneDrive\Desktop\Traffic Management system t\scripts\simulation_files\detectors.add.xml"/>
        <route-files value="C:\Users\skyle\OneDrive\Desktop\Traffic Management system t\scripts\simulation_files\routes.rou.xml"/>
        <sumo-net-file value="C:\Users\skyle\OneDrive\Desktop\Traffic Management system t\scripts\simulation_files\network.net.xml"/>
    </input>

    <output>
        <output-file value="C:\Users\skyle\OneDrive\Desktop\Traffic Management system t\scripts\simulation_files\network.net.xml"/>
        <output.street-names value="true"/>
    </output>

    <processing>
        <geometry.min-radius.fix.railways value="false"/>
        <geometry.max-grade.fix value="false"/>
        <offset.disable-normalization value="true"/>
        <lefthand value="0"/>
    </processing>

    <junctions>
        <no-turnarounds value="true"/>
        <junctions.corner-detail value="5"/>
        <junctions.limit-turn-speed value="5.50"/>
        <rectangular-lane-cut value="0"/>
    </junctions>

    <pedestrian>
        <walkingareas value="0"/>
    </pedestrian>

    <netedit>
        <ignore.routeelements value="false"/>
    </netedit>

</neteditConfiguration>
-->

<net version="1.20" junctionCornerDetail="5" limitTurnSpeed="5.50" xmlns:xsi="http://www.w3.org/2001/XMLSchema-instance" xsi:noNamespaceSchemaLocation="http://sumo.dlr.de/xsd/net_file.xsd">

    <location netOffset="-588517.46,-4389128.66" convBoundary="203.36,4.54,647.82,426.88" origBoundary="-79.968296,39.647370,-79.958017,39.651180" projParameter="+proj=utm +zone=17 +ellps=WGS84 +datum=WGS84 +units=m +no_defs"/>

    <type id="highway.footway" priority="1" numLanes="1" speed="2.78" allow="pedestrian" oneway="1" width="2.00"/>
    <type id="highway.residential" priority="3" numLanes="1" speed="13.89" disallow="tram rail_urban rail rail_electric rail_fast ship" oneway="0"/>
    <type id="highway.tertiary" priority="10" numLanes="1" speed="22.22" disallow="tram rail_urban rail rail_electric rail_fast ship" oneway="0"/>

    <edge id=":10992287802_0" function="internal">
        <lane id=":10992287802_0_0" index="0" disallow="tram rail_urban rail rail_electric rail_fast ship" speed="13.89" length="0.10" shape="563.32,397.14 563.32,397.14"/>
    </edge>
    <edge id=":10992287802_1" function="internal">
        <lane id=":10992287802_1_0" index="0" disallow="tram rail_urban rail rail_electric rail_fast ship" speed="13.89" length="0.10" shape="561.14,394.80 561.14,394.80"/>
    </edge>
    <edge id=":1120019041_0" function="internal">
        <lane id=":1120019041_0_0" index="0" disallow="tram rail_urban rail rail_electric rail_fast ship" speed="6.77" length="3.64" shape="531.42,427.06 530.62,427.77 529.97,428.15 529.24,428.32 528.17,428.36"/>
    </edge>
    <edge id=":1120019041_1" function="internal">
        <lane id=":1120019041_1_0" index="0" disallow="tram rail_urban rail rail_electric rail_fast ship" speed="4.27" length="1.21" shape="528.15,425.16 528.50,425.15 528.75,425.09 528.96,424.96 529.23,424.73"/>
    </edge>
    <edge id=":1120209850_0" function="internal">
        <lane id=":1120209850_0_0" index="0" disallow="tram rail_urban rail rail_electric rail_fast ship" speed="13.89" length="0.28" shape="405.90,245.61 405.82,245.60 405.76,245.59 405.70,245.59 405.62,245.59"/>
    </edge>
    <edge id=":1120209850_1" function="internal">
        <lane id=":1120209850_1_0" index="0" disallow="tram rail_urban rail rail_electric rail_fast ship" speed="3.65" length="2.34" shape="405.90,245.61 404.86,244.61 404.61,243.75"/>
    </edge>
    <edge id=":1120209850_4" function="internal">
        <lane id=":1120209850_4_0" index="0" disallow="tram rail_urban rail rail_electric rail_fast ship" speed="3.65" length="2.34" shape="404.61,243.75 405.15,243.04 406.47,242.47"/>
    </edge>
    <edge id=":1120209850_2" function="internal">
        <lane id=":1120209850_2_0" index="0" disallow="tram rail_urban rail rail_electric rail_fast ship" speed="13.89" length="0.83" shape="405.64,242.39 405.89,242.39 406.06,242.40 406.23,242.42 406.47,242.47"/>
    </edge>
    <edge id=":1120209850_3" function="internal">
        <lane id=":1120209850_3_0" index="0" disallow="tram rail_urban rail rail_electric rail_fast ship" speed="3.65" length="2.34" shape="405.64,242.39 406.84,243.20 407.23,244.00"/>
    </edge>
    <edge id=":1120209850_5" function="internal">
        <lane id=":1120209850_5_0" index="0" disallow="tram rail_urban rail rail_electric rail_fast ship" speed="3.65" length="2.34" shape="407.23,244.00 406.83,244.80 405.62,245.59"/>
    </edge>
    <edge id=":1229891582_0" function="internal">
        <lane id=":1229891582_0_0" index="0" disallow="tram rail_urban rail rail_electric rail_fast ship" speed="13.89" length="0.35" shape="324.87,188.54 324.66,188.26"/>
    </edge>
    <edge id=":1229891582_1" function="internal">
        <lane id=":1229891582_1_0" index="0" disallow="tram rail_urban rail rail_electric rail_fast ship" speed="13.89" length="0.12" shape="327.33,186.49 327.40,186.58"/>
    </edge>
    <edge id=":1229892103_0" function="internal">
        <lane id=":1229892103_0_0" index="0" disallow="tram rail_urban rail rail_electric rail_fast ship" speed="13.89" length="0.25" shape="460.67,90.41 460.52,90.20"/>
    </edge>
    <edge id=":1229892103_1" function="internal">
        <lane id=":1229892103_1_0" index="0" disallow="tram rail_urban rail rail_electric rail_fast ship" speed="13.89" length="0.31" shape="463.11,88.31 463.29,88.57"/>
    </edge>
    <edge id=":1229892471_0" function="internal">
        <lane id=":1229892471_0_0" index="0" disallow="tram rail_urban rail rail_electric rail_fast ship" speed="13.89" length="0.70" shape="223.62,45.44 223.49,45.27 223.41,45.16 223.34,45.03 223.25,44.85"/>
    </edge>
    <edge id=":1229892471_1" function="internal">
        <lane id=":1229892471_1_0" index="0" disallow="tram rail_urban rail rail_electric rail_fast ship" speed="13.89" length="0.23" shape="226.08,43.36 226.11,43.42 226.13,43.46 226.16,43.50 226.20,43.55"/>
    </edge>
    <edge id=":1229892774_0" function="internal">
        <lane id=":1229892774_0_0" index="0" disallow="tram rail_urban rail rail_electric rail_fast ship" speed="3.65" length="4.67" shape="408.31,18.46 408.26,17.02 408.67,16.22 409.55,16.08 410.91,16.58"/>
    </edge>
    <edge id=":155646694_0" function="internal">
        <lane id=":155646694_0_0" index="0" disallow="tram rail_urban rail rail_electric rail_fast ship" speed="13.89" length="14.42" shape="439.00,60.75 430.51,49.09"/>
    </edge>
    <edge id=":155646694_1" function="internal">
        <lane id=":155646694_1_0" index="0" disallow="tram rail_urban rail rail_electric rail_fast ship" speed="7.98" length="4.09" shape="439.00,60.75 437.16,57.30 437.14,57.12"/>
    </edge>
    <edge id=":155646694_2" function="internal">
        <lane id=":155646694_2_0" index="0" disallow="tram rail_urban rail rail_electric rail_fast ship" speed="3.65" length="1.44" shape="439.00,60.75 438.93,59.31"/>
    </edge>
    <edge id=":155646694_9" function="internal">
        <lane id=":155646694_9_0" index="0" disallow="tram rail_urban rail rail_electric rail_fast ship" speed="7.98" length="10.15" shape="437.14,57.12 436.88,54.10 438.16,51.16 441.00,48.46"/>
    </edge>
    <edge id=":155646694_10" function="internal">
        <lane id=":155646694_10_0" index="0" disallow="tram rail_urban rail rail_electric rail_fast ship" speed="3.65" length="3.23" shape="438.93,59.31 439.34,58.52 440.23,58.37 441.58,58.87"/>
    </edge>
    <edge id=":155646694_3" function="internal">
        <lane id=":155646694_3_0" index="0" disallow="tram rail_urban rail rail_electric rail_fast ship" speed="6.48" length="9.03" shape="442.85,51.07 441.05,52.78 440.24,54.65 440.41,56.68 441.58,58.87"/>
    </edge>
    <edge id=":155646694_4" function="internal">
        <lane id=":155646694_4_0" index="0" disallow="tram rail_urban rail rail_electric rail_fast ship" speed="8.04" length="14.22" shape="442.85,51.07 439.38,52.87 436.16,53.13 433.21,51.88 430.51,49.09"/>
    </edge>
    <edge id=":155646694_5" function="internal">
        <lane id=":155646694_5_0" index="0" disallow="tram rail_urban rail rail_electric rail_fast ship" speed="3.65" length="4.67" shape="442.85,51.07 441.41,51.12 440.62,50.69 440.48,49.81 441.00,48.46"/>
    </edge>
    <edge id=":155646694_6" function="internal">
        <lane id=":155646694_6_0" index="0" disallow="tram rail_urban rail rail_electric rail_fast ship" speed="6.55" length="9.10" shape="433.10,47.22 434.82,48.99 436.71,49.79 438.77,49.61 441.00,48.46"/>
    </edge>
    <edge id=":155646694_7" function="internal">
        <lane id=":155646694_7_0" index="0" disallow="tram rail_urban rail rail_electric rail_fast ship" speed="13.89" length="14.41" shape="433.10,47.22 441.58,58.87"/>
    </edge>
    <edge id=":155646694_8" function="internal">
        <lane id=":155646694_8_0" index="0" disallow="tram rail_urban rail rail_electric rail_fast ship" speed="3.65" length="1.44" shape="433.10,47.22 433.16,48.66"/>
    </edge>
    <edge id=":155646694_11" function="internal">
        <lane id=":155646694_11_0" index="0" disallow="tram rail_urban rail rail_electric rail_fast ship" speed="3.65" length="3.23" shape="433.16,48.66 432.74,49.45 431.86,49.60 430.51,49.09"/>
    </edge>
    <edge id=":155646695_0" function="internal">
        <lane id=":155646695_0_0" index="0" disallow="tram rail_urban rail rail_electric rail_fast ship" speed="6.08" length="7.56" shape="488.64,124.61 489.57,126.44 489.71,128.16 489.05,129.74 487.60,131.20"/>
    </edge>
    <edge id=":155646695_1" function="internal">
        <lane id=":155646695_1_0" index="0" disallow="tram rail_urban rail rail_electric rail_fast ship" speed="3.65" length="4.67" shape="488.64,124.61 488.67,126.05 488.25,126.83 487.36,126.97 486.02,126.45"/>
    </edge>
    <edge id=":155646695_2" function="internal">
        <lane id=":155646695_2_0" index="0" disallow="tram rail_urban rail rail_electric rail_fast ship" speed="3.91" length="2.52" shape="485.67,128.64 486.16,128.16 486.38,127.63 486.33,127.06 486.02,126.45"/>
    </edge>
    <edge id=":155646695_3" function="internal">
        <lane id=":155646695_3_0" index="0" disallow="tram rail_urban rail rail_electric rail_fast ship" speed="3.65" length="4.67" shape="485.67,128.64 487.11,128.56 487.91,128.96 488.07,129.84 487.60,131.20"/>
    </edge>
    <edge id=":155648994_0" function="internal">
        <lane id=":155648994_0_0" index="0" disallow="tram rail_urban rail rail_electric rail_fast ship" speed="13.89" length="0.27" shape="248.74,80.15 248.59,79.92"/>
    </edge>
    <edge id=":155648994_1" function="internal">
        <lane id=":155648994_1_0" index="0" disallow="tram rail_urban rail rail_electric rail_fast ship" speed="3.65" length="2.34" shape="248.74,80.15 248.71,78.71 249.14,77.92"/>
    </edge>
    <edge id=":155648994_4" function="internal">
        <lane id=":155648994_4_0" index="0" disallow="tram rail_urban rail rail_electric rail_fast ship" speed="3.65" length="2.34" shape="249.14,77.92 250.02,77.79 251.36,78.31"/>
    </edge>
    <edge id=":155648994_2" function="internal">
        <lane id=":155648994_2_0" index="0" disallow="tram rail_urban rail rail_electric rail_fast ship" speed="13.89" length="0.31" shape="251.18,78.06 251.36,78.31"/>
    </edge>
    <edge id=":155648994_3" function="internal">
        <lane id=":155648994_3_0" index="0" disallow="tram rail_urban rail rail_electric rail_fast ship" speed="3.65" length="2.34" shape="251.18,78.06 251.23,79.50 250.82,80.29"/>
    </edge>
    <edge id=":155648994_5" function="internal">
        <lane id=":155648994_5_0" index="0" disallow="tram rail_urban rail rail_electric rail_fast ship" speed="3.65" length="2.34" shape="250.82,80.29 249.94,80.43 248.59,79.92"/>
    </edge>
    <edge id=":155654245_0" function="internal">
        <lane id=":155654245_0_0" index="0" disallow="tram rail_urban rail rail_electric rail_fast ship" speed="8.64" length="11.43" shape="456.37,163.62 453.21,162.08 450.36,161.40 447.83,161.58 445.62,162.62"/>
    </edge>
    <edge id=":155654245_1" function="internal">
        <lane id=":155654245_1_0" index="0" disallow="tram rail_urban rail rail_electric rail_fast ship" speed="7.49" length="15.96" shape="456.37,163.62 452.73,160.71 451.40,157.67 452.39,154.51 455.69,151.21"/>
    </edge>
    <edge id=":155654245_2" function="internal">
        <lane id=":155654245_2_0" index="0" disallow="tram rail_urban rail rail_electric rail_fast ship" speed="3.65" length="4.67" shape="456.37,163.62 455.75,162.32 455.81,161.43 456.57,160.95 458.01,160.87"/>
    </edge>
    <edge id=":155654245_3" function="internal">
        <lane id=":155654245_3_0" index="0" disallow="tram rail_urban rail rail_electric rail_fast ship" speed="5.83" length="9.13" shape="457.62,153.77 455.73,155.65 455.16,157.47 455.92,159.20 458.01,160.87"/>
    </edge>
    <edge id=":155654245_4" function="internal">
        <lane id=":155654245_4_0" index="0" disallow="tram rail_urban rail rail_electric rail_fast ship" speed="11.18" length="14.90" shape="457.62,153.77 445.62,162.62"/>
    </edge>
    <edge id=":155654245_5" function="internal">
        <lane id=":155654245_5_0" index="0" disallow="tram rail_urban rail rail_electric rail_fast ship" speed="3.65" length="1.44" shape="457.62,153.77 456.18,153.85"/>
    </edge>
    <edge id=":155654245_9" function="internal">
        <lane id=":155654245_9_0" index="0" disallow="tram rail_urban rail rail_electric rail_fast ship" speed="3.65" length="3.23" shape="456.18,153.85 455.37,153.45 455.21,152.57 455.69,151.21"/>
    </edge>
    <edge id=":155654245_6" function="internal">
        <lane id=":155654245_6_0" index="0" disallow="tram rail_urban rail rail_electric rail_fast ship" speed="11.18" length="14.83" shape="443.76,160.02 455.69,151.21"/>
    </edge>
    <edge id=":155654245_7" function="internal">
        <lane id=":155654245_7_0" index="0" disallow="tram rail_urban rail rail_electric rail_fast ship" speed="9.87" length="3.52" shape="443.76,160.02 446.82,158.51 446.93,158.50"/>
    </edge>
    <edge id=":155654245_8" function="internal">
        <lane id=":155654245_8_0" index="0" disallow="tram rail_urban rail rail_electric rail_fast ship" speed="3.65" length="1.44" shape="443.76,160.02 445.20,159.97"/>
    </edge>
    <edge id=":155654245_10" function="internal">
        <lane id=":155654245_10_0" index="0" disallow="tram rail_urban rail rail_electric rail_fast ship" speed="9.87" length="11.61" shape="446.93,158.50 450.22,158.15 453.95,158.94 458.01,160.87"/>
    </edge>
    <edge id=":155654245_11" function="internal">
        <lane id=":155654245_11_0" index="0" disallow="tram rail_urban rail rail_electric rail_fast ship" speed="3.65" length="3.23" shape="445.20,159.97 445.99,160.39 446.13,161.27 445.62,162.62"/>
    </edge>
    <edge id=":155654246_0" function="internal">
        <lane id=":155654246_0_0" index="0" disallow="tram rail_urban rail rail_electric rail_fast ship" speed="13.89" length="0.31" shape="485.34,180.79 485.07,180.63"/>
    </edge>
    <edge id=":155654246_1" function="internal">
        <lane id=":155654246_1_0" index="0" disallow="tram rail_urban rail rail_electric rail_fast ship" speed="3.65" length="2.34" shape="485.34,180.79 484.69,179.50 484.74,178.61"/>
    </edge>
    <edge id=":155654246_4" function="internal">
        <lane id=":155654246_4_0" index="0" disallow="tram rail_urban rail rail_electric rail_fast ship" speed="3.65" length="2.34" shape="484.74,178.61 485.48,178.11 486.92,178.01"/>
    </edge>
    <edge id=":155654246_2" function="internal">
        <lane id=":155654246_2_0" index="0" disallow="tram rail_urban rail rail_electric rail_fast ship" speed="13.89" length="0.25" shape="486.71,177.88 486.92,178.01"/>
    </edge>
    <edge id=":155654246_3" function="internal">
        <lane id=":155654246_3_0" index="0" disallow="tram rail_urban rail rail_electric rail_fast ship" speed="3.65" length="2.34" shape="486.71,177.88 487.33,179.18 487.27,180.07"/>
    </edge>
    <edge id=":155654246_5" function="internal">
        <lane id=":155654246_5_0" index="0" disallow="tram rail_urban rail rail_electric rail_fast ship" speed="3.65" length="2.34" shape="487.27,180.07 486.51,180.56 485.07,180.63"/>
    </edge>
    <edge id=":155654247_0" function="internal">
        <lane id=":155654247_0_0" index="0" disallow="tram rail_urban rail rail_electric rail_fast ship" speed="13.89" length="0.28" shape="523.87,202.60 523.62,202.46"/>
    </edge>
    <edge id=":155654247_1" function="internal">
        <lane id=":155654247_1_0" index="0" disallow="tram rail_urban rail rail_electric rail_fast ship" speed="3.65" length="2.34" shape="523.87,202.60 523.23,201.31 523.28,200.41"/>
    </edge>
    <edge id=":155654247_4" function="internal">
        <lane id=":155654247_4_0" index="0" disallow="tram rail_urban rail rail_electric rail_fast ship" speed="3.65" length="2.34" shape="523.28,200.41 524.03,199.92 525.47,199.83"/>
    </edge>
    <edge id=":155654247_2" function="internal">
        <lane id=":155654247_2_0" index="0" disallow="tram rail_urban rail rail_electric rail_fast ship" speed="13.89" length="0.31" shape="525.20,199.67 525.47,199.83"/>
    </edge>
    <edge id=":155654247_3" function="internal">
        <lane id=":155654247_3_0" index="0" disallow="tram rail_urban rail rail_electric rail_fast ship" speed="3.65" length="2.34" shape="525.20,199.67 525.85,200.96 525.80,201.86"/>
    </edge>
    <edge id=":155654247_5" function="internal">
        <lane id=":155654247_5_0" index="0" disallow="tram rail_urban rail rail_electric rail_fast ship" speed="3.65" length="2.34" shape="525.80,201.86 525.06,202.35 523.62,202.46"/>
    </edge>
    <edge id=":155654250_0" function="internal">
        <lane id=":155654250_0_0" index="0" disallow="tram rail_urban rail rail_electric rail_fast ship" speed="3.65" length="4.67" shape="598.83,242.31 599.47,243.60 599.41,244.49 598.67,244.98 597.23,245.07"/>
    </edge>
    <edge id=":155675978_0" function="internal">
        <lane id=":155675978_0_0" index="0" disallow="tram rail_urban rail rail_electric rail_fast ship" speed="9.05" length="1.92" shape="503.79,421.84 503.32,421.52 503.02,421.27 502.77,420.97 502.45,420.50"/>
    </edge>
    <edge id=":155675978_1" function="internal">
        <lane id=":155675978_1_0" index="0" disallow="tram rail_urban rail rail_electric rail_fast ship" speed="13.89" length="0.64" shape="505.11,418.73 505.22,418.88 505.31,418.98 505.41,419.07 505.56,419.17"/>
    </edge>
    <edge id=":155681121_0" function="internal">
        <lane id=":155681121_0_0" index="0" disallow="tram rail_urban rail rail_electric rail_fast ship" speed="3.65" length="4.67" shape="201.83,5.02 202.24,3.63 202.88,3.01 203.76,3.16 204.89,4.06"/>
    </edge>
    <edge id=":155681125_0" function="internal">
        <lane id=":155681125_0_0" index="0" disallow="tram rail_urban rail rail_electric rail_fast ship" speed="13.89" length="0.31" shape="274.64,117.07 274.46,116.82"/>
    </edge>
    <edge id=":155681125_1" function="internal">
        <lane id=":155681125_1_0" index="0" disallow="tram rail_urban rail rail_electric rail_fast ship" speed="13.89" length="0.23" shape="277.08,114.98 277.22,115.17"/>
    </edge>
    <edge id=":155681131_0" function="internal">
        <lane id=":155681131_0_0" index="0" disallow="tram rail_urban rail rail_electric rail_fast ship" speed="13.89" length="0.31" shape="404.67,285.58 404.49,285.32"/>
    </edge>
    <edge id=":155681131_1" function="internal">
        <lane id=":155681131_1_0" index="0" disallow="tram rail_urban rail rail_electric rail_fast ship" speed="3.65" length="2.34" shape="404.67,285.58 404.62,284.14 405.03,283.34"/>
    </edge>
    <edge id=":155681131_4" function="internal">
        <lane id=":155681131_4_0" index="0" disallow="tram rail_urban rail rail_electric rail_fast ship" speed="3.65" length="2.34" shape="405.03,283.34 405.91,283.20 407.26,283.70"/>
    </edge>
    <edge id=":155681131_2" function="internal">
        <lane id=":155681131_2_0" index="0" disallow="tram rail_urban rail rail_electric rail_fast ship" speed="13.89" length="0.28" shape="407.10,283.47 407.26,283.70"/>
    </edge>
    <edge id=":155681131_3" function="internal">
        <lane id=":155681131_3_0" index="0" disallow="tram rail_urban rail rail_electric rail_fast ship" speed="3.65" length="2.34" shape="407.10,283.47 407.14,284.91 406.72,285.70"/>
    </edge>
    <edge id=":155681131_5" function="internal">
        <lane id=":155681131_5_0" index="0" disallow="tram rail_urban rail rail_electric rail_fast ship" speed="3.65" length="2.34" shape="406.72,285.70 405.84,285.84 404.49,285.32"/>
    </edge>
    <edge id=":3428067320_0" function="internal">
        <lane id=":3428067320_0_0" index="0" disallow="tram rail_urban rail rail_electric rail_fast ship" speed="11.18" length="0.10" shape="285.76,281.82 285.76,281.82"/>
    </edge>
    <edge id=":3428067320_1" function="internal">
        <lane id=":3428067320_1_0" index="0" disallow="tram rail_urban rail rail_electric rail_fast ship" speed="11.18" length="0.10" shape="283.90,279.22 283.90,279.22"/>
    </edge>
    <edge id=":3712268791_0" function="internal">
        <lane id=":3712268791_0_0" index="0" disallow="tram rail_urban rail rail_electric rail_fast ship" speed="11.18" length="0.16" shape="334.18,244.48 334.15,244.51 334.12,244.53 334.10,244.55 334.06,244.59"/>
    </edge>
    <edge id=":3712268791_1" function="internal">
        <lane id=":3712268791_1_0" index="0" disallow="tram rail_urban rail rail_electric rail_fast ship" speed="11.18" length="0.48" shape="331.83,242.30 331.93,242.20 332.00,242.13 332.07,242.07 332.19,241.98"/>
    </edge>
    <edge id=":3712268804_0" function="internal">
        <lane id=":3712268804_0_0" index="0" disallow="tram rail_urban rail rail_electric rail_fast ship" speed="13.89" length="0.10" shape="474.82,380.60 474.82,380.60"/>
    </edge>
    <edge id=":3712268804_1" function="internal">
        <lane id=":3712268804_1_0" index="0" disallow="tram rail_urban rail rail_electric rail_fast ship" speed="13.89" length="0.10" shape="477.24,378.52 477.24,378.52"/>
    </edge>
    <edge id=":5784940094_0" function="internal">
        <lane id=":5784940094_0_0" index="0" disallow="tram rail_urban rail rail_electric rail_fast ship" speed="6.63" length="9.20" shape="607.53,363.29 605.55,361.82 603.54,361.33 601.49,361.83 599.41,363.30"/>
    </edge>
    <edge id=":5784940094_1" function="internal">
        <lane id=":5784940094_1_0" index="0" disallow="tram rail_urban rail rail_electric rail_fast ship" speed="13.89" length="14.40" shape="607.53,363.29 597.35,353.11"/>
    </edge>
    <edge id=":5784940094_2" function="internal">
        <lane id=":5784940094_2_0" index="0" disallow="tram rail_urban rail rail_electric rail_fast ship" speed="3.65" length="1.44" shape="607.53,363.29 607.24,361.88"/>
    </edge>
    <edge id=":5784940094_9" function="internal">
        <lane id=":5784940094_9_0" index="0" disallow="tram rail_urban rail rail_electric rail_fast ship" speed="3.65" length="3.23" shape="607.24,361.88 607.53,361.03 608.38,360.75 609.79,361.03"/>
    </edge>
    <edge id=":5784940094_3" function="internal">
        <lane id=":5784940094_3_0" index="0" disallow="tram rail_urban rail rail_electric rail_fast ship" speed="13.89" length="14.40" shape="599.61,350.84 609.79,361.03"/>
    </edge>
    <edge id=":5784940094_4" function="internal">
        <lane id=":5784940094_4_0" index="0" disallow="tram rail_urban rail rail_electric rail_fast ship" speed="7.94" length="4.09" shape="599.61,350.84 601.97,354.00 602.01,354.14"/>
    </edge>
    <edge id=":5784940094_5" function="internal">
        <lane id=":5784940094_5_0" index="0" disallow="tram rail_urban rail rail_electric rail_fast ship" speed="3.65" length="1.44" shape="599.61,350.84 599.89,352.26"/>
    </edge>
    <edge id=":5784940094_10" function="internal">
        <lane id=":5784940094_10_0" index="0" disallow="tram rail_urban rail rail_electric rail_fast ship" speed="7.94" length="10.22" shape="602.01,354.14 602.72,357.13 601.87,360.23 599.41,363.30"/>
    </edge>
    <edge id=":5784940094_11" function="internal">
        <lane id=":5784940094_11_0" index="0" disallow="tram rail_urban rail rail_electric rail_fast ship" speed="3.65" length="3.23" shape="599.89,352.26 599.61,353.11 598.76,353.39 597.35,353.11"/>
    </edge>
    <edge id=":5784940094_6" function="internal">
        <lane id=":5784940094_6_0" index="0" disallow="tram rail_urban rail rail_electric rail_fast ship" speed="6.44" length="9.03" shape="597.22,360.97 598.77,359.03 599.31,357.07 598.84,355.10 597.35,353.11"/>
    </edge>
    <edge id=":5784940094_7" function="internal">
        <lane id=":5784940094_7_0" index="0" disallow="tram rail_urban rail rail_electric rail_fast ship" speed="8.11" length="14.24" shape="597.22,360.97 600.43,358.70 603.59,357.96 606.71,358.73 609.79,361.03"/>
    </edge>
    <edge id=":5784940094_8" function="internal">
        <lane id=":5784940094_8_0" index="0" disallow="tram rail_urban rail rail_electric rail_fast ship" speed="3.65" length="4.67" shape="597.22,360.97 598.64,360.73 599.48,361.04 599.73,361.90 599.41,363.30"/>
    </edge>
    <edge id=":9398173025_0" function="internal">
        <lane id=":9398173025_0_0" index="0" disallow="tram rail_urban rail rail_electric rail_fast ship" speed="3.65" length="4.67" shape="478.13,22.14 479.58,22.10 480.37,22.52 480.50,23.41 479.99,24.76"/>
    </edge>
    <edge id=":cluster_12186534458_155681126_0" function="internal">
        <lane id=":cluster_12186534458_155681126_0_0" index="0" disallow="tram rail_urban rail rail_electric rail_fast ship" speed="13.89" length="5.20" shape="301.26,153.03 298.16,148.84"/>
    </edge>
    <edge id=":cluster_12186534458_155681126_1" function="internal">
        <lane id=":cluster_12186534458_155681126_1_0" index="0" disallow="tram rail_urban rail rail_electric rail_fast ship" speed="3.65" length="1.44" shape="301.26,153.03 301.26,151.58"/>
    </edge>
    <edge id=":cluster_12186534458_155681126_4" function="internal">
        <lane id=":cluster_12186534458_155681126_4_0" index="0" disallow="tram rail_urban rail rail_electric rail_fast ship" speed="3.65" length="3.23" shape="301.26,151.58 301.70,150.81 302.59,150.70 303.92,151.25"/>
    </edge>
    <edge id=":cluster_12186534458_155681126_2" function="internal">
        <lane id=":cluster_12186534458_155681126_2_0" index="0" disallow="tram rail_urban rail rail_electric rail_fast ship" speed="13.89" length="5.37" shape="300.74,146.94 303.92,151.25"/>
    </edge>
    <edge id=":cluster_12186534458_155681126_3" function="internal">
        <lane id=":cluster_12186534458_155681126_3_0" index="0" disallow="tram rail_urban rail rail_electric rail_fast ship" speed="3.65" length="1.44" shape="300.74,146.94 300.81,148.38"/>
    </edge>
    <edge id=":cluster_12186534458_155681126_5" function="internal">
        <lane id=":cluster_12186534458_155681126_5_0" index="0" disallow="tram rail_urban rail rail_electric rail_fast ship" speed="3.65" length="3.23" shape="300.81,148.38 300.40,149.18 299.52,149.33 298.16,148.84"/>
    </edge>
    <edge id=":cluster_155675096_3712268792_0" function="internal">
        <lane id=":cluster_155675096_3712268792_0_0" index="0" disallow="tram rail_urban rail rail_electric rail_fast ship" speed="13.89" length="17.45" shape="383.00,255.03 380.57,251.67 377.76,248.03 374.78,244.53 371.85,241.64"/>
    </edge>
    <edge id=":cluster_155675096_3712268792_1" function="internal">
        <lane id=":cluster_155675096_3712268792_1_0" index="0" disallow="tram rail_urban rail rail_electric rail_fast ship" speed="7.69" length="5.63" shape="383.00,255.03 380.24,250.12"/>
    </edge>
    <edge id=":cluster_155675096_3712268792_2" function="internal">
        <lane id=":cluster_155675096_3712268792_2_0" index="0" disallow="tram rail_urban rail rail_electric rail_fast ship" speed="3.65" length="1.44" shape="383.00,255.03 382.95,253.58"/>
    </edge>
    <edge id=":cluster_155675096_3712268792_9" function="internal">
        <lane id=":cluster_155675096_3712268792_9_0" index="0" disallow="tram rail_urban rail rail_electric rail_fast ship" speed="7.69" length="13.57" shape="380.24,250.12 379.85,249.42 379.51,245.42 381.97,243.04 387.25,242.27"/>
    </edge>
    <edge id=":cluster_155675096_3712268792_10" function="internal">
        <lane id=":cluster_155675096_3712268792_10_0" index="0" disallow="tram rail_urban rail rail_electric rail_fast ship" speed="3.65" length="3.23" shape="382.95,253.58 383.37,252.80 384.26,252.66 385.60,253.17"/>
    </edge>
    <edge id=":cluster_155675096_3712268792_3" function="internal">
        <lane id=":cluster_155675096_3712268792_3_0" index="0" disallow="tram rail_urban rail rail_electric rail_fast ship" speed="5.98" length="11.03" shape="387.23,245.47 384.46,245.94 383.26,247.38 383.65,249.79 385.60,253.17"/>
    </edge>
    <edge id=":cluster_155675096_3712268792_4" function="internal">
        <lane id=":cluster_155675096_3712268792_4_0" index="0" disallow="tram rail_urban rail rail_electric rail_fast ship" speed="13.89" length="16.13" shape="387.23,245.47 383.25,245.32 379.09,244.77 375.15,243.61 371.85,241.64"/>
    </edge>
    <edge id=":cluster_155675096_3712268792_5" function="internal">