<?xml version="1.0" encoding="UTF-8"?>

<!-- generated on 2024-11-13 22:16:55 by Eclipse SUMO netedit Version 1.21.0
<neteditConfiguration xmlns:xsi="http://www.w3.org/2001/XMLSchema-instance" xsi:noNamespaceSchemaLocation="http://sumo.dlr.de/xsd/neteditConfiguration.xsd">

    <input>
        <sumo-net-file value="/home/venky/Documents/PLC Projects/traffic_management_system/traci-demo-master_modified/2024-11-13-21-50-15/final_modified/osm.net.xml"/>
    </input>

    <output>
        <output-file value="/home/venky/Documents/PLC Projects/traffic_management_system/traci-demo-master_modified/2024-11-13-21-50-15/final_modified/osm.net.xml"/>
        <output.street-names value="true"/>
    </output>

    <processing>
        <geometry.min-radius.fix.railways value="false"/>
        <geometry.max-grade.fix value="false"/>
        <offset.disable-normalization value="true"/>
        <lefthand value="0"/>
    </processing>

    <junctions>
        <no-turnarounds value="true"/>
        <junctions.corner-detail value="5"/>
        <junctions.limit-turn-speed value="5.50"/>
        <rectangular-lane-cut value="0"/>
    </junctions>

    <pedestrian>
        <walkingareas value="0"/>
    </pedestrian>

</neteditConfiguration>
-->

<net version="1.20" junctionCornerDetail="5" limitTurnSpeed="5.50" xmlns:xsi="http://www.w3.org/2001/XMLSchema-instance" xsi:noNamespaceSchemaLocation="http://sumo.dlr.de/xsd/net_file.xsd">

    <location netOffset="-588517.46,-4389128.66" convBoundary="203.36,4.54,867.75,426.88" origBoundary="-79.968296,39.647370,-79.958017,39.651180" projParameter="+proj=utm +zone=17 +ellps=WGS84 +datum=WGS84 +units=m +no_defs"/>

    <type id="highway.footway" priority="1" numLanes="1" speed="2.78" allow="pedestrian" oneway="1" width="2.00"/>
    <type id="highway.residential" priority="3" numLanes="1" speed="13.89" disallow="tram rail_urban rail rail_electric rail_fast ship container cable_car subway aircraft wheelchair scooter drone" oneway="0"/>
    <type id="highway.service" priority="1" numLanes="1" speed="5.56" allow="pedestrian delivery bicycle" oneway="0"/>
    <type id="highway.tertiary" priority="10" numLanes="1" speed="22.22" disallow="tram rail_urban rail rail_electric rail_fast ship container cable_car subway aircraft wheelchair scooter drone" oneway="0"/>

    <edge id=":10992287802_0" function="internal">
        <lane id=":10992287802_0_0" index="0" disallow="tram rail_urban rail rail_electric rail_fast ship container cable_car subway aircraft wheelchair scooter drone" speed="13.89" length="0.10" shape="563.32,397.14 563.32,397.14"/>
    </edge>
    <edge id=":10992287802_1" function="internal">
        <lane id=":10992287802_1_0" index="0" disallow="tram rail_urban rail rail_electric rail_fast ship container cable_car subway aircraft wheelchair scooter drone" speed="13.89" length="0.10" shape="561.14,394.80 561.14,394.80"/>
    </edge>
    <edge id=":1120019041_0" function="internal">
        <lane id=":1120019041_0_0" index="0" disallow="tram rail_urban rail rail_electric rail_fast ship container cable_car subway aircraft wheelchair scooter drone" speed="6.77" length="3.64" shape="531.42,427.06 530.62,427.77 529.97,428.15 529.24,428.32 528.17,428.36"/>
    </edge>
    <edge id=":1120019041_1" function="internal">
        <lane id=":1120019041_1_0" index="0" disallow="tram rail_urban rail rail_electric rail_fast ship container cable_car subway aircraft wheelchair scooter drone" speed="4.27" length="1.21" shape="528.15,425.16 528.50,425.15 528.75,425.09 528.96,424.96 529.23,424.73"/>
    </edge>
    <edge id=":1120209834_0" function="internal">
        <lane id=":1120209834_0_0" index="0" disallow="tram rail_urban rail rail_electric rail_fast ship container cable_car subway aircraft wheelchair scooter drone" speed="7.47" length="10.50" shape="360.49,231.82 358.00,230.14 355.59,229.46 353.24,229.77 350.96,231.07"/>
    </edge>
    <edge id=":1120209834_1" function="internal">
        <lane id=":1120209834_1_0" index="0" disallow="tram rail_urban rail rail_electric rail_fast ship container cable_car subway aircraft wheelchair scooter drone" speed="13.89" length="15.43" shape="360.49,231.82 357.65,229.26 354.88,226.52 352.24,223.65 349.81,220.71"/>
    </edge>
    <edge id=":1120209834_2" function="internal">
        <lane id=":1120209834_2_0" index="0" disallow="tram rail_urban rail rail_electric rail_fast ship container cable_car subway aircraft wheelchair scooter drone" speed="7.64" length="4.52" shape="360.49,231.82 357.66,228.57 357.60,228.36"/>
    </edge>
    <edge id=":1120209834_3" function="internal">
        <lane id=":1120209834_3_0" index="0" disallow="tram rail_urban rail rail_electric rail_fast ship container cable_car subway aircraft wheelchair scooter drone" speed="3.65" length="1.44" shape="360.49,231.82 360.10,230.43"/>
    </edge>
    <edge id=":1120209834_16" function="internal">
        <lane id=":1120209834_16_0" index="0" disallow="tram rail_urban rail rail_electric rail_fast ship container cable_car subway aircraft wheelchair scooter drone" speed="7.64" length="10.66" shape="357.60,228.36 356.81,225.40 357.94,222.33 361.05,219.34"/>
    </edge>
    <edge id=":1120209834_17" function="internal">
        <lane id=":1120209834_17_0" index="0" disallow="tram rail_urban rail rail_electric rail_fast ship container cable_car subway aircraft wheelchair scooter drone" speed="3.65" length="3.23" shape="360.10,230.43 360.32,229.56 361.15,229.22 362.58,229.40"/>
    </edge>
    <edge id=":1120209834_4" function="internal">
        <lane id=":1120209834_4_0" index="0" disallow="tram rail_urban rail rail_electric rail_fast ship container cable_car subway aircraft wheelchair scooter drone" speed="6.06" length="9.07" shape="362.91,221.94 361.05,223.73 360.38,225.56 360.89,227.45 362.58,229.40"/>
    </edge>
    <edge id=":1120209834_5" function="internal">
        <lane id=":1120209834_5_0" index="0" disallow="tram rail_urban rail rail_electric rail_fast ship container cable_car subway aircraft wheelchair scooter drone" speed="11.18" length="15.04" shape="362.91,221.94 350.96,231.07"/>
    </edge>
    <edge id=":1120209834_6" function="internal">
        <lane id=":1120209834_6_0" index="0" disallow="tram rail_urban rail rail_electric rail_fast ship container cable_car subway aircraft wheelchair scooter drone" speed="8.29" length="4.26" shape="362.91,221.94 359.17,223.96"/>
    </edge>
    <edge id=":1120209834_7" function="internal">
        <lane id=":1120209834_7_0" index="0" disallow="tram rail_urban rail rail_electric rail_fast ship container cable_car subway aircraft wheelchair scooter drone" speed="3.65" length="1.44" shape="362.91,221.94 361.47,221.99"/>
    </edge>
    <edge id=":1120209834_18" function="internal">
        <lane id=":1120209834_18_0" index="0" disallow="tram rail_urban rail rail_electric rail_fast ship container cable_car subway aircraft wheelchair scooter drone" speed="8.29" length="10.62" shape="359.17,223.96 355.74,224.43 352.62,223.35 349.81,220.71"/>
    </edge>
    <edge id=":1120209834_19" function="internal">
        <lane id=":1120209834_19_0" index="0" disallow="tram rail_urban rail rail_electric rail_fast ship container cable_car subway aircraft wheelchair scooter drone" speed="3.65" length="3.23" shape="361.47,221.99 360.68,221.57 360.54,220.69 361.05,219.34"/>
    </edge>
    <edge id=":1120209834_8" function="internal">
        <lane id=":1120209834_8_0" index="0" disallow="tram rail_urban rail rail_electric rail_fast ship container cable_car subway aircraft wheelchair scooter drone" speed="6.86" length="9.85" shape="352.34,218.75 354.16,220.43 356.22,221.09 358.52,220.73 361.05,219.34"/>
    </edge>
    <edge id=":1120209834_9" function="internal">
        <lane id=":1120209834_9_0" index="0" disallow="tram rail_urban rail rail_electric rail_fast ship container cable_car subway aircraft wheelchair scooter drone" speed="13.89" length="14.79" shape="352.34,218.75 354.70,221.62 357.19,224.33 359.81,226.91 362.58,229.40"/>
    </edge>
    <edge id=":1120209834_10" function="internal">
        <lane id=":1120209834_10_0" index="0" disallow="tram rail_urban rail rail_electric rail_fast ship container cable_car subway aircraft wheelchair scooter drone" speed="8.02" length="3.88" shape="352.34,218.75 354.27,222.11"/>
    </edge>
    <edge id=":1120209834_11" function="internal">
        <lane id=":1120209834_11_0" index="0" disallow="tram rail_urban rail rail_electric rail_fast ship container cable_car subway aircraft wheelchair scooter drone" speed="3.65" length="1.44" shape="352.34,218.75 352.45,220.19"/>
    </edge>
    <edge id=":1120209834_20" function="internal">
        <lane id=":1120209834_20_0" index="0" disallow="tram rail_urban rail rail_electric rail_fast ship container cable_car subway aircraft wheelchair scooter drone" speed="8.02" length="10.22" shape="354.27,222.11 354.68,225.29 353.58,228.28 350.96,231.07"/>
    </edge>
    <edge id=":1120209834_21" function="internal">
        <lane id=":1120209834_21_0" index="0" disallow="tram rail_urban rail rail_electric rail_fast ship container cable_car subway aircraft wheelchair scooter drone" speed="3.65" length="3.23" shape="352.45,220.19 352.06,220.99 351.18,221.17 349.81,220.71"/>
    </edge>
    <edge id=":1120209834_12" function="internal">
        <lane id=":1120209834_12_0" index="0" disallow="tram rail_urban rail rail_electric rail_fast ship container cable_car subway aircraft wheelchair scooter drone" speed="6.54" length="9.03" shape="348.92,228.61 350.60,226.81 351.31,224.90 351.05,222.86 349.81,220.71"/>
    </edge>
    <edge id=":1120209834_13" function="internal">
        <lane id=":1120209834_13_0" index="0" disallow="tram rail_urban rail rail_electric rail_fast ship container cable_car subway aircraft wheelchair scooter drone" speed="11.18" length="15.27" shape="348.92,228.61 361.05,219.34"/>
    </edge>
    <edge id=":1120209834_14" function="internal">
        <lane id=":1120209834_14_0" index="0" disallow="tram rail_urban rail rail_electric rail_fast ship container cable_car subway aircraft wheelchair scooter drone" speed="8.83" length="4.18" shape="348.92,228.61 352.25,226.67 352.58,226.62"/>
    </edge>
    <edge id=":1120209834_15" function="internal">
        <lane id=":1120209834_15_0" index="0" disallow="tram rail_urban rail rail_electric rail_fast ship container cable_car subway aircraft wheelchair scooter drone" speed="3.65" length="1.44" shape="348.92,228.61 350.35,228.46"/>
    </edge>
    <edge id=":1120209834_22" function="internal">
        <lane id=":1120209834_22_0" index="0" disallow="tram rail_urban rail rail_electric rail_fast ship container cable_car subway aircraft wheelchair scooter drone" speed="8.83" length="10.86" shape="352.58,226.62 355.64,226.16 359.08,227.07 362.58,229.40"/>
    </edge>
    <edge id=":1120209834_23" function="internal">
        <lane id=":1120209834_23_0" index="0" disallow="tram rail_urban rail rail_electric rail_fast ship container cable_car subway aircraft wheelchair scooter drone" speed="3.65" length="3.23" shape="350.35,228.46 351.17,228.82 351.37,229.69 350.96,231.07"/>
    </edge>
    <edge id=":1120209850_0" function="internal">
        <lane id=":1120209850_0_0" index="0" disallow="tram rail_urban rail rail_electric rail_fast ship container cable_car subway aircraft wheelchair scooter drone" speed="13.89" length="0.28" shape="405.90,245.61 405.82,245.60 405.76,245.59 405.70,245.59 405.62,245.59"/>
    </edge>
    <edge id=":1120209850_1" function="internal">
        <lane id=":1120209850_1_0" index="0" disallow="tram rail_urban rail rail_electric rail_fast ship container cable_car subway aircraft wheelchair scooter drone" speed="3.65" length="2.34" shape="405.90,245.61 404.86,244.61 404.61,243.75"/>
    </edge>
    <edge id=":1120209850_4" function="internal">
        <lane id=":1120209850_4_0" index="0" disallow="tram rail_urban rail rail_electric rail_fast ship container cable_car subway aircraft wheelchair scooter drone" speed="3.65" length="2.34" shape="404.61,243.75 405.15,243.04 406.47,242.47"/>
    </edge>
    <edge id=":1120209850_2" function="internal">
        <lane id=":1120209850_2_0" index="0" disallow="tram rail_urban rail rail_electric rail_fast ship container cable_car subway aircraft wheelchair scooter drone" speed="13.89" length="0.83" shape="405.64,242.39 405.89,242.39 406.06,242.40 406.23,242.42 406.47,242.47"/>
    </edge>
    <edge id=":1120209850_3" function="internal">
        <lane id=":1120209850_3_0" index="0" disallow="tram rail_urban rail rail_electric rail_fast ship container cable_car subway aircraft wheelchair scooter drone" speed="3.65" length="2.34" shape="405.64,242.39 406.84,243.20 407.23,244.00"/>
    </edge>
    <edge id=":1120209850_5" function="internal">
        <lane id=":1120209850_5_0" index="0" disallow="tram rail_urban rail rail_electric rail_fast ship container cable_car subway aircraft wheelchair scooter drone" speed="3.65" length="2.34" shape="407.23,244.00 406.83,244.80 405.62,245.59"/>
    </edge>
    <edge id=":1229891582_0" function="internal">
        <lane id=":1229891582_0_0" index="0" disallow="tram rail_urban rail rail_electric rail_fast ship container cable_car subway aircraft wheelchair scooter drone" speed="13.89" length="0.35" shape="324.87,188.54 324.66,188.26"/>
    </edge>
    <edge id=":1229891582_1" function="internal">
        <lane id=":1229891582_1_0" index="0" disallow="tram rail_urban rail rail_electric rail_fast ship container cable_car subway aircraft wheelchair scooter drone" speed="13.89" length="0.12" shape="327.33,186.49 327.40,186.58"/>
    </edge>
    <edge id=":1229892103_0" function="internal">
        <lane id=":1229892103_0_0" index="0" disallow="tram rail_urban rail rail_electric rail_fast ship container cable_car subway aircraft wheelchair scooter drone" speed="13.89" length="0.25" shape="460.67,90.41 460.52,90.20"/>
    </edge>
    <edge id=":1229892103_1" function="internal">
        <lane id=":1229892103_1_0" index="0" disallow="tram rail_urban rail rail_electric rail_fast ship container cable_car subway aircraft wheelchair scooter drone" speed="13.89" length="0.31" shape="463.11,88.31 463.29,88.57"/>
    </edge>
    <edge id=":1229892471_0" function="internal">
        <lane id=":1229892471_0_0" index="0" disallow="tram rail_urban rail rail_electric rail_fast ship container cable_car subway aircraft wheelchair scooter drone" speed="13.89" length="0.70" shape="223.62,45.44 223.49,45.27 223.41,45.16 223.34,45.03 223.25,44.85"/>
    </edge>
    <edge id=":1229892471_1" function="internal">
        <lane id=":1229892471_1_0" index="0" disallow="tram rail_urban rail rail_electric rail_fast ship container cable_car subway aircraft wheelchair scooter drone" speed="13.89" length="0.23" shape="226.08,43.36 226.11,43.42 226.13,43.46 226.16,43.50 226.20,43.55"/>
    </edge>
    <edge id=":1229892761_0" function="internal">
        <lane id=":1229892761_0_0" index="0" disallow="tram rail_urban rail rail_electric rail_fast ship container cable_car subway aircraft wheelchair scooter drone" speed="3.65" length="4.67" shape="334.25,16.68 335.69,16.62 336.48,17.03 336.63,17.91 336.13,19.26"/>
    </edge>
    <edge id=":1229892774_0" function="internal">
        <lane id=":1229892774_0_0" index="0" disallow="tram rail_urban rail rail_electric rail_fast ship container cable_car subway aircraft wheelchair scooter drone" speed="3.65" length="4.67" shape="408.31,18.46 408.26,17.02 408.67,16.22 409.55,16.08 410.91,16.58"/>
    </edge>
    <edge id=":155646694_0" function="internal">
        <lane id=":155646694_0_0" index="0" disallow="tram rail_urban rail rail_electric rail_fast ship container cable_car subway aircraft wheelchair scooter drone" speed="6.51" length="9.06" shape="439.00,60.75 437.26,58.97 435.37,58.17 433.33,58.35 431.15,59.52"/>
    </edge>
    <edge id=":155646694_1" function="internal">
        <lane id=":155646694_1_0" index="0" disallow="tram rail_urban rail rail_electric rail_fast ship container cable_car subway aircraft wheelchair scooter drone" speed="13.89" length="14.43" shape="439.00,60.75 430.50,49.09"/>
    </edge>
    <edge id=":155646694_2" function="internal">
        <lane id=":155646694_2_0" index="0" disallow="tram rail_urban rail rail_electric rail_fast ship container cable_car subway aircraft wheelchair scooter drone" speed="7.98" length="4.09" shape="439.00,60.75 437.16,57.30 437.14,57.12"/>
    </edge>
    <edge id=":155646694_3" function="internal">
        <lane id=":155646694_3_0" index="0" disallow="tram rail_urban rail rail_electric rail_fast ship container cable_car subway aircraft wheelchair scooter drone" speed="3.65" length="1.44" shape="439.00,60.75 438.93,59.31"/>
    </edge>
    <edge id=":155646694_16" function="internal">
        <lane id=":155646694_16_0" index="0" disallow="tram rail_urban rail rail_electric rail_fast ship container cable_car subway aircraft wheelchair scooter drone" speed="7.98" length="10.15" shape="437.14,57.12 436.88,54.10 438.16,51.16 441.00,48.46"/>
    </edge>
    <edge id=":155646694_17" function="internal">
        <lane id=":155646694_17_0" index="0" disallow="tram rail_urban rail rail_electric rail_fast ship container cable_car subway aircraft wheelchair scooter drone" speed="3.65" length="3.23" shape="438.93,59.31 439.34,58.52 440.23,58.37 441.58,58.87"/>
    </edge>
    <edge id=":155646694_4" function="internal">
        <lane id=":155646694_4_0" index="0" disallow="tram rail_urban rail rail_electric rail_fast ship container cable_car subway aircraft wheelchair scooter drone" speed="6.48" length="9.03" shape="442.85,51.07 441.05,52.78 440.24,54.65 440.41,56.68 441.58,58.87"/>
    </edge>
    <edge id=":155646694_5" function="internal">
        <lane id=":155646694_5_0" index="0" disallow="tram rail_urban rail rail_electric rail_fast ship container cable_car subway aircraft wheelchair scooter drone" speed="13.89" length="14.43" shape="442.85,51.07 431.15,59.52"/>
    </edge>
    <edge id=":155646694_6" function="internal">
        <lane id=":155646694_6_0" index="0" disallow="tram rail_urban rail rail_electric rail_fast ship container cable_car subway aircraft wheelchair scooter drone" speed="8.04" length="14.23" shape="442.85,51.07 439.37,52.87 436.16,53.13 433.20,51.87 430.50,49.09"/>
    </edge>
    <edge id=":155646694_7" function="internal">
        <lane id=":155646694_7_0" index="0" disallow="tram rail_urban rail rail_electric rail_fast ship container cable_car subway aircraft wheelchair scooter drone" speed="3.65" length="4.67" shape="442.85,51.07 441.41,51.12 440.62,50.69 440.48,49.81 441.00,48.46"/>
    </edge>
    <edge id=":155646694_8" function="internal">
        <lane id=":155646694_8_0" index="0" disallow="tram rail_urban rail rail_electric rail_fast ship container cable_car subway aircraft wheelchair scooter drone" speed="6.55" length="9.10" shape="433.10,47.21 434.82,48.99 436.71,49.79 438.77,49.61 441.00,48.46"/>
    </edge>
    <edge id=":155646694_9" function="internal">
        <lane id=":155646694_9_0" index="0" disallow="tram rail_urban rail rail_electric rail_fast ship container cable_car subway aircraft wheelchair scooter drone" speed="13.89" length="14.42" shape="433.10,47.21 441.58,58.87"/>
    </edge>
    <edge id=":155646694_10" function="internal">
        <lane id=":155646694_10_0" index="0" disallow="tram rail_urban rail rail_electric rail_fast ship container cable_car subway aircraft wheelchair scooter drone" speed="8.02" length="4.04" shape="433.10,47.21 434.90,50.64 434.92,50.80"/>
    </edge>
    <edge id=":155646694_11" function="internal">
        <lane id=":155646694_11_0" index="0" disallow="tram rail_urban rail rail_electric rail_fast ship container cable_car subway aircraft wheelchair scooter drone" speed="3.65" length="1.44" shape="433.10,47.21 433.15,48.65"/>
    </edge>
    <edge id=":155646694_18" function="internal">
        <lane id=":155646694_18_0" index="0" disallow="tram rail_urban rail rail_electric rail_fast ship container cable_car subway aircraft wheelchair scooter drone" speed="8.02" length="10.15" shape="434.92,50.80 435.18,53.84 433.93,56.80 431.15,59.52"/>
    </edge>
    <edge id=":155646694_19" function="internal">
        <lane id=":155646694_19_0" index="0" disallow="tram rail_urban rail rail_electric rail_fast ship container cable_car subway aircraft wheelchair scooter drone" speed="3.65" length="3.23" shape="433.15,48.65 432.74,49.44 431.86,49.59 430.50,49.09"/>
    </edge>
    <edge id=":155646694_12" function="internal">
        <lane id=":155646694_12_0" index="0" disallow="tram rail_urban rail rail_electric rail_fast ship container cable_car subway aircraft wheelchair scooter drone" speed="6.53" length="9.06" shape="429.25,56.94 431.03,55.20 431.83,53.31 431.66,51.28 430.50,49.09"/>
    </edge>
    <edge id=":155646694_13" function="internal">
        <lane id=":155646694_13_0" index="0" disallow="tram rail_urban rail rail_electric rail_fast ship container cable_car subway aircraft wheelchair scooter drone" speed="13.89" length="14.49" shape="429.25,56.94 441.00,48.46"/>
    </edge>
    <edge id=":155646694_14" function="internal">
        <lane id=":155646694_14_0" index="0" disallow="tram rail_urban rail rail_electric rail_fast ship container cable_car subway aircraft wheelchair scooter drone" speed="8.00" length="14.23" shape="429.25,56.94 432.69,55.11 435.89,54.81 438.85,56.07 441.58,58.87"/>
    </edge>
    <edge id=":155646694_15" function="internal">
        <lane id=":155646694_15_0" index="0" disallow="tram rail_urban rail rail_electric rail_fast ship container cable_car subway aircraft wheelchair scooter drone" speed="3.65" length="4.67" shape="429.25,56.94 430.70,56.88 431.49,57.28 431.64,58.17 431.15,59.52"/>
    </edge>
    <edge id=":155646695_0" function="internal">
        <lane id=":155646695_0_0" index="0" disallow="tram rail_urban rail rail_electric rail_fast ship container cable_car subway aircraft wheelchair scooter drone" speed="11.18" length="14.33" shape="495.91,125.07 484.40,133.61"/>
    </edge>
    <edge id=":155646695_1" function="internal">
        <lane id=":155646695_1_0" index="0" disallow="tram rail_urban rail rail_electric rail_fast ship container cable_car subway aircraft wheelchair scooter drone" speed="7.97" length="4.03" shape="495.91,125.07 492.46,126.91 492.35,126.92"/>
    </edge>
    <edge id=":155646695_2" function="internal">
        <lane id=":155646695_2_0" index="0" disallow="tram rail_urban rail rail_electric rail_fast ship container cable_car subway aircraft wheelchair scooter drone" speed="3.65" length="1.44" shape="495.91,125.07 494.47,125.14"/>
    </edge>
    <edge id=":155646695_9" function="internal">
        <lane id=":155646695_9_0" index="0" disallow="tram rail_urban rail rail_electric rail_fast ship container cable_car subway aircraft wheelchair scooter drone" speed="7.97" length="10.23" shape="492.35,126.92 489.25,127.19 486.31,125.90 483.63,123.04"/>
    </edge>
    <edge id=":155646695_10" function="internal">
        <lane id=":155646695_10_0" index="0" disallow="tram rail_urban rail rail_electric rail_fast ship container cable_car subway aircraft wheelchair scooter drone" speed="3.65" length="3.23" shape="494.47,125.14 493.68,124.73 493.53,123.84 494.03,122.49"/>
    </edge>
    <edge id=":155646695_3" function="internal">
        <lane id=":155646695_3_0" index="0" disallow="tram rail_urban rail rail_electric rail_fast ship container cable_car subway aircraft wheelchair scooter drone" speed="6.47" length="9.03" shape="486.24,121.20 487.94,123.01 489.81,123.83 491.84,123.65 494.03,122.49"/>
    </edge>
    <edge id=":155646695_4" function="internal">
        <lane id=":155646695_4_0" index="0" disallow="tram rail_urban rail rail_electric rail_fast ship container cable_car subway aircraft wheelchair scooter drone" speed="8.10" length="14.20" shape="486.24,121.20 488.03,124.68 488.32,127.91 487.11,130.88 484.40,133.61"/>
    </edge>
    <edge id=":155646695_5" function="internal">
        <lane id=":155646695_5_0" index="0" disallow="tram rail_urban rail rail_electric rail_fast ship container cable_car subway aircraft wheelchair scooter drone" speed="3.65" length="4.67" shape="486.24,121.20 486.28,122.65 485.86,123.43 484.97,123.57 483.63,123.04"/>
    </edge>
    <edge id=":155646695_6" function="internal">
        <lane id=":155646695_6_0" index="0" disallow="tram rail_urban rail rail_electric rail_fast ship container cable_car subway aircraft wheelchair scooter drone" speed="6.62" length="9.16" shape="482.48,131.05 484.21,129.30 484.98,127.38 484.79,125.30 483.63,123.04"/>
    </edge>
    <edge id=":155646695_7" function="internal">
        <lane id=":155646695_7_0" index="0" disallow="tram rail_urban rail rail_electric rail_fast ship container cable_car subway aircraft wheelchair scooter drone" speed="11.18" length="14.38" shape="482.48,131.05 494.03,122.49"/>
    </edge>
    <edge id=":155646695_8" function="internal">
        <lane id=":155646695_8_0" index="0" disallow="tram rail_urban rail rail_electric rail_fast ship container cable_car subway aircraft wheelchair scooter drone" speed="3.65" length="1.44" shape="482.48,131.05 483.92,130.97"/>
    </edge>
    <edge id=":155646695_11" function="internal">
        <lane id=":155646695_11_0" index="0" disallow="tram rail_urban rail rail_electric rail_fast ship container cable_car subway aircraft wheelchair scooter drone" speed="3.65" length="3.23" shape="483.92,130.97 484.72,131.37 484.88,132.25 484.40,133.61"/>
    </edge>
    <edge id=":155647561_0" function="internal">
        <lane id=":155647561_0_0" index="0" disallow="tram rail_urban rail rail_electric rail_fast ship container cable_car subway aircraft wheelchair scooter drone" speed="11.18" length="0.21" shape="652.30,22.13 652.24,22.14 652.19,22.14 652.15,22.15 652.09,22.17"/>
    </edge>
    <edge id=":155647561_1" function="internal">
        <lane id=":155647561_1_0" index="0" disallow="tram rail_urban rail rail_electric rail_fast ship container cable_car subway aircraft wheelchair scooter drone" speed="3.65" length="2.34" shape="652.30,22.13 651.02,21.46 650.54,20.70"/>
    </edge>
    <edge id=":155647561_4" function="internal">
        <lane id=":155647561_4_0" index="0" disallow="tram rail_urban rail rail_electric rail_fast ship container cable_car subway aircraft wheelchair scooter drone" speed="3.65" length="2.34" shape="650.54,20.70 650.85,19.87 651.96,18.95"/>
    </edge>
    <edge id=":155647561_2" function="internal">
        <lane id=":155647561_2_0" index="0" disallow="tram rail_urban rail rail_electric rail_fast ship container cable_car subway aircraft wheelchair scooter drone" speed="11.18" length="0.64" shape="651.34,19.05 651.52,19.01 651.65,18.99 651.78,18.97 651.96,18.95"/>
    </edge>
    <edge id=":155647561_3" function="internal">
        <lane id=":155647561_3_0" index="0" disallow="tram rail_urban rail rail_electric rail_fast ship container cable_car subway aircraft wheelchair scooter drone" speed="3.65" length="2.34" shape="651.34,19.05 652.69,19.55 653.27,20.23"/>
    </edge>
    <edge id=":155647561_5" function="internal">
        <lane id=":155647561_5_0" index="0" disallow="tram rail_urban rail rail_electric rail_fast ship container cable_car subway aircraft wheelchair scooter drone" speed="3.65" length="2.34" shape="653.27,20.23 653.07,21.11 652.09,22.17"/>
    </edge>
    <edge id=":155648994_0" function="internal">
        <lane id=":155648994_0_0" index="0" disallow="tram rail_urban rail rail_electric rail_fast ship container cable_car subway aircraft wheelchair scooter drone" speed="13.89" length="14.34" shape="252.79,85.92 244.49,74.23"/>
    </edge>
    <edge id=":155648994_1" function="internal">
        <lane id=":155648994_1_0" index="0" disallow="tram rail_urban rail rail_electric rail_fast ship container cable_car subway aircraft wheelchair scooter drone" speed="8.00" length="4.02" shape="252.79,85.92 251.03,82.45 251.02,82.32"/>
    </edge>
    <edge id=":155648994_2" function="internal">
        <lane id=":155648994_2_0" index="0" disallow="tram rail_urban rail rail_electric rail_fast ship container cable_car subway aircraft wheelchair scooter drone" speed="3.65" length="1.44" shape="252.79,85.92 252.76,84.48"/>
    </edge>
    <edge id=":155648994_9" function="internal">
        <lane id=":155648994_9_0" index="0" disallow="tram rail_urban rail rail_electric rail_fast ship container cable_car subway aircraft wheelchair scooter drone" speed="8.00" length="10.16" shape="251.02,82.32 250.80,79.26 252.11,76.33 254.94,73.67"/>
    </edge>
    <edge id=":155648994_10" function="internal">
        <lane id=":155648994_10_0" index="0" disallow="tram rail_urban rail rail_electric rail_fast ship container cable_car subway aircraft wheelchair scooter drone" speed="3.65" length="3.23" shape="252.76,84.48 253.18,83.69 254.07,83.56 255.41,84.08"/>
    </edge>
    <edge id=":155648994_3" function="internal">
        <lane id=":155648994_3_0" index="0" disallow="tram rail_urban rail rail_electric rail_fast ship container cable_car subway aircraft wheelchair scooter drone" speed="6.51" length="9.03" shape="256.78,76.28 254.97,77.98 254.15,79.84 254.29,81.88 255.41,84.08"/>
    </edge>
    <edge id=":155648994_4" function="internal">
        <lane id=":155648994_4_0" index="0" disallow="tram rail_urban rail rail_electric rail_fast ship container cable_car subway aircraft wheelchair scooter drone" speed="8.03" length="14.17" shape="256.78,76.28 253.32,78.05 250.11,78.29 247.17,77.02 244.49,74.23"/>
    </edge>
    <edge id=":155648994_5" function="internal">